/*--------------------------------*- C++ -*----------------------------------*/

// File was generated by SwiftBlock, a Blender 3D addon.

FoamFile
{
    version     2.0;
    format      ascii;
    class       dictionary;
    object      blockMeshDict;
}
// * * * * * * * * * * * * * * * * * * * * * * * * * * * * * * * * * * * * * //

convertToMeters 1.0;

vertices
(
    (1.0 3.999999761581421 -1.0)
    (1.0 -4.0 -1.0)
    (-1.0000001192092896 -3.9999992847442627 -1.048039436340332)
    (-0.9999996423721313 4.000001430511475 -1.0)
    (1.0000004768371582 3.999997854232788 1.0)
    (0.9999993443489075 -4.000002384185791 1.0)
    (-1.0000003576278687 -3.9999985694885254 0.951960563659668)
    (-0.9999999403953552 4.0 1.0)
);
blocks
(
    hex (4 5 6 7 0 1 2 3)  (8 2 2) edgeGrading ( 1 1.0 1.0 1 1 1 1 1 1.0 1.0 1.0 1.0)
);

patches
(
    inlet IN
    (
        (1 5 6 2)
    )
    wall 1
    (
        (0 4 5 1)
    )
    wall 2
    (
        (4 7 6 5)
    )
    wall 3
    (
        (2 6 7 3)
    )
    wall 4
    (
        (0 1 2 3)
    )
    outlet OUT
    (
        (4 0 3 7)
    )
);

edges
(
);

mergePatchPairs
(
);

// ************************************************************************* //
