/*--------------------------------*- C++ -*----------------------------------*\
| =========                 |                                                 |
| \\      /  F ield         | OpenFOAM: The Open Source CFD Toolbox           |
|  \\    /   O peration     | Version:  4.1                                   |
|   \\  /    A nd           | Web:      www.OpenFOAM.org                      |
|    \\/     M anipulation  |                                                 |
\*---------------------------------------------------------------------------*/
FoamFile
{
    version     2.0;
    format      binary;
    class       polyBoundaryMesh;
    location    "constant/polyMesh";
    object      boundary;
}
// * * * * * * * * * * * * * * * * * * * * * * * * * * * * * * * * * * * * * //

75
(
    frontAndBack
    {
        type            patch;
        nFaces          54;
        startFace       171477;
    }
    inlet
    {
        type            patch;
        nFaces          36;
        startFace       171531;
    }
    outlet
    {
        type            patch;
        nFaces          0;
        startFace       171567;
    }
    lowerWall
    {
        type            wall;
        inGroups        1(wall);
        nFaces          681;
        startFace       171567;
    }
    upperWall
    {
        type            patch;
        nFaces          24;
        startFace       172248;
    }
    motorBike_frt-fairing:001%1
    {
        type            wall;
        inGroups        
2
(
motorBikeGroup
wall
)
;
        nFaces          1984;
        startFace       172272;
    }
    motorBike_windshield:002%2
    {
        type            wall;
        inGroups        
2
(
motorBikeGroup
wall
)
;
        nFaces          22;
        startFace       174256;
    }
    motorBike_rr-wh-rim:005%5
    {
        type            wall;
        inGroups        
2
(
motorBikeGroup
wall
)
;
        nFaces          0;
        startFace       174278;
    }
    motorBike_rr-wh-rim:010%10
    {
        type            wall;
        inGroups        
2
(
motorBikeGroup
wall
)
;
        nFaces          0;
        startFace       174278;
    }
    motorBike_fr-wh-rim:011%11
    {
        type            wall;
        inGroups        
2
(
motorBikeGroup
wall
)
;
        nFaces          247;
        startFace       174278;
    }
    motorBike_fr-wh-brake-disk:012%12
    {
        type            wall;
        inGroups        
2
(
motorBikeGroup
wall
)
;
        nFaces          21;
        startFace       174525;
    }
    motorBike_frame:016-shadow%13
    {
        type            wall;
        inGroups        
2
(
motorBikeGroup
wall
)
;
        nFaces          40;
        startFace       174546;
    }
    motorBike_rear-susp:014%14
    {
        type            wall;
        inGroups        
2
(
motorBikeGroup
wall
)
;
        nFaces          0;
        startFace       174586;
    }
    motorBike_rear-susp:014-shadow%15
    {
        type            wall;
        inGroups        
2
(
motorBikeGroup
wall
)
;
        nFaces          0;
        startFace       174586;
    }
    motorBike_frame:016%16
    {
        type            wall;
        inGroups        
2
(
motorBikeGroup
wall
)
;
        nFaces          27;
        startFace       174586;
    }
    motorBike_rr-wh-rim:005-shadow%17
    {
        type            wall;
        inGroups        
2
(
motorBikeGroup
wall
)
;
        nFaces          0;
        startFace       174613;
    }
    motorBike_rr-wh-chain-hub:022%22
    {
        type            wall;
        inGroups        
2
(
motorBikeGroup
wall
)
;
        nFaces          0;
        startFace       174613;
    }
    motorBike_rearseat%24
    {
        type            wall;
        inGroups        
2
(
motorBikeGroup
wall
)
;
        nFaces          0;
        startFace       174613;
    }
    motorBike_frt-fairing%25
    {
        type            wall;
        inGroups        
2
(
motorBikeGroup
wall
)
;
        nFaces          297;
        startFace       174613;
    }
    motorBike_windshield%26
    {
        type            wall;
        inGroups        
2
(
motorBikeGroup
wall
)
;
        nFaces          168;
        startFace       174910;
    }
    motorBike_headlights%27
    {
        type            wall;
        inGroups        
2
(
motorBikeGroup
wall
)
;
        nFaces          77;
        startFace       175078;
    }
    motorBike_driversseat%28
    {
        type            wall;
        inGroups        
2
(
motorBikeGroup
wall
)
;
        nFaces          0;
        startFace       175155;
    }
    motorBike_rear-body%29
    {
        type            wall;
        inGroups        
2
(
motorBikeGroup
wall
)
;
        nFaces          0;
        startFace       175155;
    }
    motorBike_fuel-tank%30
    {
        type            wall;
        inGroups        
2
(
motorBikeGroup
wall
)
;
        nFaces          218;
        startFace       175155;
    }
    motorBike_exhaust%31
    {
        type            wall;
        inGroups        
2
(
motorBikeGroup
wall
)
;
        nFaces          407;
        startFace       175373;
    }
    motorBike_rr-wh-rim%32
    {
        type            wall;
        inGroups        
2
(
motorBikeGroup
wall
)
;
        nFaces          0;
        startFace       175780;
    }
    motorBike_fr-mud-guard%33
    {
        type            wall;
        inGroups        
2
(
motorBikeGroup
wall
)
;
        nFaces          310;
        startFace       175780;
    }
    motorBike_fr-wh-rim%34
    {
        type            wall;
        inGroups        
2
(
motorBikeGroup
wall
)
;
        nFaces          329;
        startFace       176090;
    }
    motorBike_fr-wh-brake-disk%35
    {
        type            wall;
        inGroups        
2
(
motorBikeGroup
wall
)
;
        nFaces          224;
        startFace       176419;
    }
    motorBike_fr-brake-caliper%36
    {
        type            wall;
        inGroups        
2
(
motorBikeGroup
wall
)
;
        nFaces          77;
        startFace       176643;
    }
    motorBike_fr-wh-tyre%37
    {
        type            wall;
        inGroups        
2
(
motorBikeGroup
wall
)
;
        nFaces          600;
        startFace       176720;
    }
    motorBike_hbars%38
    {
        type            wall;
        inGroups        
2
(
motorBikeGroup
wall
)
;
        nFaces          252;
        startFace       177320;
    }
    motorBike_fr-forks%39
    {
        type            wall;
        inGroups        
2
(
motorBikeGroup
wall
)
;
        nFaces          538;
        startFace       177572;
    }
    motorBike_chain%40
    {
        type            wall;
        inGroups        
2
(
motorBikeGroup
wall
)
;
        nFaces          0;
        startFace       178110;
    }
    motorBike_rr-wh-tyre%41
    {
        type            wall;
        inGroups        
2
(
motorBikeGroup
wall
)
;
        nFaces          0;
        startFace       178110;
    }
    motorBike_square-dial%42
    {
        type            wall;
        inGroups        
2
(
motorBikeGroup
wall
)
;
        nFaces          0;
        startFace       178110;
    }
    motorBike_round-dial%43
    {
        type            wall;
        inGroups        
2
(
motorBikeGroup
wall
)
;
        nFaces          15;
        startFace       178110;
    }
    motorBike_dial-holder%44
    {
        type            wall;
        inGroups        
2
(
motorBikeGroup
wall
)
;
        nFaces          42;
        startFace       178125;
    }
    motorBike_rear-susp%45
    {
        type            wall;
        inGroups        
2
(
motorBikeGroup
wall
)
;
        nFaces          0;
        startFace       178167;
    }
    motorBike_rear-brake-lights%46
    {
        type            wall;
        inGroups        
2
(
motorBikeGroup
wall
)
;
        nFaces          0;
        startFace       178167;
    }
    motorBike_rear-light-bracket%47
    {
        type            wall;
        inGroups        
2
(
motorBikeGroup
wall
)
;
        nFaces          0;
        startFace       178167;
    }
    motorBike_frame%48
    {
        type            wall;
        inGroups        
2
(
motorBikeGroup
wall
)
;
        nFaces          540;
        startFace       178167;
    }
    motorBike_rear-mud-guard%49
    {
        type            wall;
        inGroups        
2
(
motorBikeGroup
wall
)
;
        nFaces          0;
        startFace       178707;
    }
    motorBike_rear-susp-spring-damp%50
    {
        type            wall;
        inGroups        
2
(
motorBikeGroup
wall
)
;
        nFaces          0;
        startFace       178707;
    }
    motorBike_fairing-inner-plate%51
    {
        type            wall;
        inGroups        
2
(
motorBikeGroup
wall
)
;
        nFaces          208;
        startFace       178707;
    }
    motorBike_clutch-housing%52
    {
        type            wall;
        inGroups        
2
(
motorBikeGroup
wall
)
;
        nFaces          0;
        startFace       178915;
    }
    motorBike_radiator%53
    {
        type            wall;
        inGroups        
2
(
motorBikeGroup
wall
)
;
        nFaces          45;
        startFace       178915;
    }
    motorBike_water-pipe%54
    {
        type            wall;
        inGroups        
2
(
motorBikeGroup
wall
)
;
        nFaces          94;
        startFace       178960;
    }
    motorBike_water-pump%55
    {
        type            wall;
        inGroups        
2
(
motorBikeGroup
wall
)
;
        nFaces          73;
        startFace       179054;
    }
    motorBike_engine%56
    {
        type            wall;
        inGroups        
2
(
motorBikeGroup
wall
)
;
        nFaces          723;
        startFace       179127;
    }
    motorBike_rear-shock-link%57
    {
        type            wall;
        inGroups        
2
(
motorBikeGroup
wall
)
;
        nFaces          0;
        startFace       179850;
    }
    motorBike_rear-brake-fluid-pot-bracket%58
    {
        type            wall;
        inGroups        
2
(
motorBikeGroup
wall
)
;
        nFaces          0;
        startFace       179850;
    }
    motorBike_rear-brake-fluid-pot%59
    {
        type            wall;
        inGroups        
2
(
motorBikeGroup
wall
)
;
        nFaces          0;
        startFace       179850;
    }
    motorBike_footpeg%60
    {
        type            wall;
        inGroups        
2
(
motorBikeGroup
wall
)
;
        nFaces          0;
        startFace       179850;
    }
    motorBike_rr-wh-chain-hub%61
    {
        type            wall;
        inGroups        
2
(
motorBikeGroup
wall
)
;
        nFaces          0;
        startFace       179850;
    }
    motorBike_rear-brake-caliper%62
    {
        type            wall;
        inGroups        
2
(
motorBikeGroup
wall
)
;
        nFaces          0;
        startFace       179850;
    }
    motorBike_rider-helmet%65
    {
        type            wall;
        inGroups        
2
(
motorBikeGroup
wall
)
;
        nFaces          349;
        startFace       179850;
    }
    motorBike_rider-visor%66
    {
        type            wall;
        inGroups        
2
(
motorBikeGroup
wall
)
;
        nFaces          75;
        startFace       180199;
    }
    motorBike_rider-boots%67
    {
        type            wall;
        inGroups        
2
(
motorBikeGroup
wall
)
;
        nFaces          0;
        startFace       180274;
    }
    motorBike_rider-gloves%68
    {
        type            wall;
        inGroups        
2
(
motorBikeGroup
wall
)
;
        nFaces          146;
        startFace       180274;
    }
    motorBike_rider-body%69
    {
        type            wall;
        inGroups        
2
(
motorBikeGroup
wall
)
;
        nFaces          241;
        startFace       180420;
    }
    motorBike_frame:0%70
    {
        type            wall;
        inGroups        
2
(
motorBikeGroup
wall
)
;
        nFaces          0;
        startFace       180661;
    }
    motorBike_frt-fairing:001-shadow%74
    {
        type            wall;
        inGroups        
2
(
motorBikeGroup
wall
)
;
        nFaces          1223;
        startFace       180661;
    }
    motorBike_windshield-shadow%75
    {
        type            wall;
        inGroups        
2
(
motorBikeGroup
wall
)
;
        nFaces          117;
        startFace       181884;
    }
    motorBike_fr-mud-guard-shadow%81
    {
        type            wall;
        inGroups        
2
(
motorBikeGroup
wall
)
;
        nFaces          188;
        startFace       182001;
    }
    motorBike_fr-wh-brake-disk-shadow%83
    {
        type            wall;
        inGroups        
2
(
motorBikeGroup
wall
)
;
        nFaces          90;
        startFace       182189;
    }
    motorBike_rear-mud-guard-shadow%84
    {
        type            wall;
        inGroups        
2
(
motorBikeGroup
wall
)
;
        nFaces          0;
        startFace       182279;
    }
    motorBike_rear-susp-spring-damp-shadow%85
    {
        type            wall;
        inGroups        
2
(
motorBikeGroup
wall
)
;
        nFaces          0;
        startFace       182279;
    }
    motorBike_radiator-shadow%86
    {
        type            wall;
        inGroups        
2
(
motorBikeGroup
wall
)
;
        nFaces          26;
        startFace       182279;
    }
    motorBike_rear-shock-link-shadow%87
    {
        type            wall;
        inGroups        
2
(
motorBikeGroup
wall
)
;
        nFaces          0;
        startFace       182305;
    }
    motorBike_rear-brake-fluid-pot-bracket-shadow%88
    {
        type            wall;
        inGroups        
2
(
motorBikeGroup
wall
)
;
        nFaces          0;
        startFace       182305;
    }
    motorBike_rr-wh-chain-hub-shadow%89
    {
        type            wall;
        inGroups        
2
(
motorBikeGroup
wall
)
;
        nFaces          0;
        startFace       182305;
    }
    procBoundary3to0
    {
        type            processor;
        inGroups        1(processor);
        nFaces          4086;
        startFace       182305;
        matchTolerance  0.0001;
        transform       unknown;
        myProcNo        3;
        neighbProcNo    0;
    }
    procBoundary3to1
    {
        type            processor;
        inGroups        1(processor);
        nFaces          43;
        startFace       186391;
        matchTolerance  0.0001;
        transform       unknown;
        myProcNo        3;
        neighbProcNo    1;
    }
    procBoundary3to4
    {
        type            processor;
        inGroups        1(processor);
        nFaces          1988;
        startFace       186434;
        matchTolerance  0.0001;
        transform       unknown;
        myProcNo        3;
        neighbProcNo    4;
    }
)

// ************************************************************************* //
